Circuit: * C:\Users\DRA\Dropbox\My PC (DESKTOP-MR1852M)\Documents\LTspiceXVII\2ndRC.asc

Limiting rise time of source v1 to 0.0001
Limiting fall time of source v1 to 0.0001
.OP point found by inspection.

Date: Tue Aug 17 14:56:07 2021
Total elapsed time: 0.042 seconds.

tnom = 27
temp = 27
method = modified trap
totiter = 2202
traniter = 2202
tranpoints = 1102
accept = 1087
rejected = 15
matrix size = 3
fillins = 0
solver = Normal
Matrix Compiler1: 50 bytes object code size  0.0/0.0/[0.0]
Matrix Compiler2:      15 opcodes  0.0/[0.0]/0.0

