Circuit: * C:\Users\DRA\Dropbox\My PC (DESKTOP-MR1852M)\Documents\LTspiceXVII\Objective2.2.asc

Fatal Error: V1: requires a minimum of 5 parameters.  Only 2 specified.

