Circuit: * C:\Users\DRA\Dropbox\My PC (DESKTOP-MR1852M)\Documents\LTspiceXVII\Objective 3.1.asc


Date: Tue Sep 07 15:12:14 2021
Total elapsed time: 0.037 seconds.

tnom = 27
temp = 27
method = trap
totiter = 0
traniter = 0
tranpoints = 0
accept = 0
rejected = 0
matrix size = 4
fillins = 0
solver = Normal

