Circuit: * C:\Users\DRA\Dropbox\My PC (DESKTOP-MR1852M)\Documents\LTspiceXVII\4.1.asc

.OP point found by inspection.

Date: Tue Sep 21 16:06:28 2021
Total elapsed time: 0.042 seconds.

tnom = 27
temp = 27
method = trap
totiter = 204
traniter = 0
tranpoints = 0
accept = 0
rejected = 0
matrix size = 3
fillins = 0
solver = Normal
Matrix Compiler1: 86 bytes object code size  0.0/0.0/[0.0]
Matrix Compiler2: 163 bytes object code size  0.0/0.0/[0.0]

