Circuit: * C:\Users\DRA\Dropbox\My PC (DESKTOP-MR1852M)\Documents\LTspiceXVII\4.2.asc

.OP point found by inspection.

Date: Wed Sep 29 15:33:58 2021
Total elapsed time: 0.069 seconds.

tnom = 27
temp = 27
method = modified trap
totiter = 2663
traniter = 2663
tranpoints = 1207
accept = 1129
rejected = 78
matrix size = 7
fillins = 0
solver = Normal
Matrix Compiler1:      16 opcodes  0.1/[0.0]/0.1
Matrix Compiler2: 501 bytes object code size  0.1/0.1/[0.0]

