Circuit: * C:\Users\DRA\Dropbox\My PC (DESKTOP-MR1852M)\Documents\LTspiceXVII\Obj4.3.asc

Direct Newton iteration for .op point succeeded.

Date: Tue Oct 05 14:50:58 2021
Total elapsed time: 0.049 seconds.

tnom = 27
temp = 27
method = modified trap
totiter = 2224
traniter = 2214
tranpoints = 1060
accept = 1054
rejected = 6
matrix size = 5
fillins = 0
solver = Normal
Matrix Compiler1: 132 bytes object code size  0.0/0.0/[0.0]
Matrix Compiler2: off  [0.0]/0.0/0.0

