Circuit: * C:\Users\DRA\Dropbox\My PC (DESKTOP-MR1852M)\Documents\LTspiceXVII\Assignment 1 parallel.asc


Date: Sat Aug 14 13:57:08 2021
Total elapsed time: 0.039 seconds.

tnom = 27
temp = 27
method = trap
totiter = 9
traniter = 0
tranpoints = 0
accept = 0
rejected = 0
matrix size = 2
fillins = 0
solver = Normal
Matrix Compiler1: 36 bytes object code size
Matrix Compiler2: 96 bytes object code size
