Circuit: * C:\Users\DRA\Dropbox\My PC (DESKTOP-MR1852M)\Documents\LTspiceXVII\Lab1.2.asc

.OP point found by inspection.

Date: Tue Aug 10 16:43:59 2021
Total elapsed time: 0.040 seconds.

tnom = 27
temp = 27
method = modified trap
totiter = 2840
traniter = 2840
tranpoints = 1421
accept = 1265
rejected = 156
matrix size = 2
fillins = 0
solver = Normal
Matrix Compiler1:       2 opcodes  0.0/[0.0]/0.0
Matrix Compiler2: 96 bytes object code size  0.0/0.0/[0.0]

