Circuit: * C:\Users\DRA\Dropbox\My PC (DESKTOP-MR1852M)\Documents\5.1.asc

V1: Missing value, assumed 0V @ DC

Date: Tue Oct 19 15:32:02 2021
Total elapsed time: 0.039 seconds.

tnom = 27
temp = 27
method = trap
totiter = 206
traniter = 0
tranpoints = 0
accept = 0
rejected = 0
matrix size = 9
fillins = 0
solver = Normal
Matrix Compiler1: 456 bytes object code size  0.1/0.1/[0.1]
Matrix Compiler2: 667 bytes object code size  0.1/0.1/[0.0]

